Circuit: * C:\Users\AT95\OneDrive\Desktop\6_OEiDT\10_labs\Lab4\2_Zadatak_lab4.asc

.step var=1
.step var=3
.step var=3.4
.step var=3.6

Date: Tue Jan 17 11:59:42 2023
Total elapsed time: 1.188 seconds.

tnom = 27
temp = 27
method = trap
totiter = 1006
traniter = 0
tranpoints = 0
accept = 0
rejected = 0
matrix size = 8
fillins = 0
solver = Normal
Matrix Compiler1: 326 bytes object code size  0.3/0.2/[0.2]
Matrix Compiler2: 554 bytes object code size  0.2/0.2/[0.1]

