Circuit: * C:\Users\AT95\OneDrive\Documents\LTspiceXVII\1_Zadatak_lab2.asc

.OP point found by inspection.
.step cvar=0
.step cvar=1e-007
.step cvar=1e-006
.step cvar=1e-005

Date: Wed Nov 16 22:28:12 2022
Total elapsed time: 1.154 seconds.

tnom = 27
temp = 27
method = modified trap
totiter = 3630
traniter = 3630
tranpoints = 1816
accept = 1690
rejected = 126
matrix size = 3
fillins = 0
solver = Normal
Matrix Compiler1: 50 bytes object code size  0.1/0.1/[0.1]
Matrix Compiler2: off  [0.1]/0.1/0.1

