Circuit: * C:\Users\AT95\OneDrive\Desktop\6_OEiDT\10_labs\Lab2\2_Zadatak_lab2.asc

.OP point found by inspection.
.step cvar=0
.step cvar=1e-007
.step cvar=1e-006
.step cvar=1e-005

Date: Tue Jan 17 13:21:28 2023
Total elapsed time: 0.562 seconds.

tnom = 27
temp = 27
method = modified trap
totiter = 3630
traniter = 3630
tranpoints = 1816
accept = 1690
rejected = 126
matrix size = 3
fillins = 0
solver = Normal
Matrix Compiler1: 50 bytes object code size  0.2/0.1/[0.1]
Matrix Compiler2: 175 bytes object code size  0.1/0.2/[0.1]

