Circuit: * C:\Users\AT95\OneDrive\Desktop\6_OEiDT\10_labs\Lab5\1_Zadatak_Lab5.asc

Instance "m:u1:6": Length shorter than recommended for a level 2 MOSFET.
Instance "m:u1:5": Length shorter than recommended for a level 2 MOSFET.
Direct Newton iteration failed to find .op point.  (Use ".option noopiter" to skip.)
Starting Gmin stepping
Gmin = 10
vernier = 0.5
Gmin = 1.67772
vernier = 0.25
vernier = 0.125
Gmin = 1.13761
vernier = 0.0625
vernier = 0.03125
Gmin = 1.08552
vernier = 0.015625
vernier = 0.0208333
vernier = 0.0104167
Gmin = 1.0618
vernier = 0.0138889
vernier = 0.00694444
Gmin = 1.04355
vernier = 0.00925925
vernier = 0.00462963
vernier = 0.00617283
vernier = 0.00308642
Gmin = 1.03573
vernier = 0.00411522
vernier = 0.00205761
Gmin = 1.02962
vernier = 0.00274348
vernier = 0.00137174
Gmin = 1.02487
vernier = 0.00182899
Gmin = 1.02066
vernier = 0.00243865
vernier = 0.00121932
vernier = 0.00162576
vernier = 0.000812882
Gmin = 1.0189
vernier = 0.00108384
Gmin = 1.01642
vernier = 0.00144512
vernier = 0.000722562
vernier = 0.000963415
Gmin = 1.01477
vernier = 0.000481708
vernier = 0.000642277
Gmin = 1.01367
vernier = 0.000856369
vernier = 0.000428184
Gmin = 1.01264
vernier = 0.000570912
vernier = 0.000761216
vernier = 0.000570912
Gmin = 1.01148
vernier = 0.000428184
vernier = 0.000570912
vernier = 0.000428184
Gmin = 1.0108
vernier = 0.000570912
vernier = 0.000428184
Gmin = 1.00993
Gmin = 0
Gmin stepping failed

Starting source stepping with srcstepmethod=0
Source Step = 3.0303%
Source Step = 33.3333%
Source Step = 63.6364%
Source Step = 93.9394%
Source stepping succeeded in finding the operating point.


Date: Tue Jan 17 12:44:13 2023
Total elapsed time: 1.172 seconds.

tnom = 27
temp = 27
method = trap
totiter = 12152
traniter = 0
tranpoints = 0
accept = 0
rejected = 0
matrix size = 41
fillins = 28
solver = Normal
Matrix Compiler1:     153 opcodes
Matrix Compiler2: off  [1.9]/3.3/2.5

