Circuit: * C:\Users\AT95\OneDrive\Desktop\6_OEiDT\10_labs\Lab6\1_Zadatak_Lab6.asc

Warning: Multiple definitions of model "2scr375p" Type: BJT
Warning: Multiple definitions of model "bc857b" Type: BJT
Warning: Multiple definitions of model "bc847c" Type: BJT
Warning: Multiple definitions of model "bc847b" Type: BJT

Date: Tue Jan 17 12:53:16 2023
Total elapsed time: 0.109 seconds.

tnom = 27
temp = 27
method = trap
totiter = 1014
traniter = 0
tranpoints = 0
accept = 0
rejected = 0
matrix size = 6
fillins = 0
solver = Normal
Matrix Compiler1: 146 bytes object code size  0.3/0.2/[0.2]
Matrix Compiler2: 380 bytes object code size  0.2/0.3/[0.2]

