Circuit: * C:\Users\AT95\OneDrive\Desktop\6_OEiDT\10_labs\Lab6\2_Zadatak_Lab6.asc

Warning: Multiple definitions of model "2scr375p" Type: BJT
Warning: Multiple definitions of model "bc857b" Type: BJT
Warning: Multiple definitions of model "bc847c" Type: BJT
Warning: Multiple definitions of model "bc847b" Type: BJT
Direct Newton iteration for .op point succeeded.

Date: Tue Jan 17 12:54:23 2023
Total elapsed time: 0.171 seconds.

tnom = 27
temp = 27
method = modified trap
totiter = 2796
traniter = 2790
tranpoints = 1308
accept = 1289
rejected = 19
matrix size = 9
fillins = 0
solver = Normal
Matrix Compiler1: 456 bytes object code size  0.6/0.4/[0.4]
Matrix Compiler2: 667 bytes object code size  0.3/0.6/[0.3]

