Circuit: * C:\Users\AT95\OneDrive\Desktop\6_OEiDT\10_labs\Lab3\2_Zadatak_Lab3.asc


Date: Tue Jan 17 13:20:59 2023
Total elapsed time: 0.269 seconds.

tnom = 27
temp = 27
method = trap
totiter = 423
traniter = 0
tranpoints = 0
accept = 0
rejected = 0
matrix size = 9
fillins = 0
solver = Normal
Matrix Compiler1: 260 bytes object code size  0.5/0.4/[0.4]
Matrix Compiler2: 579 bytes object code size  0.2/0.5/[0.2]

