Circuit: * C:\Users\AT95\OneDrive\Documents\LTspiceXVII\2_Zadatak_lab1.asc


Date: Mon Nov 28 20:48:45 2022
Total elapsed time: 0.102 seconds.

tnom = 27
temp = 27
method = trap
totiter = 0
traniter = 0
tranpoints = 0
accept = 0
rejected = 0
matrix size = 3
fillins = 0
solver = Normal

