Circuit: * C:\Users\AT95\OneDrive\Documents\LTspiceXVII\3_Zadatak_lab1.asc

.OP point found by inspection.

Date: Mon Nov 28 20:57:28 2022
Total elapsed time: 0.209 seconds.

tnom = 27
temp = 27
method = modified trap
totiter = 2082
traniter = 2082
tranpoints = 1042
accept = 1042
rejected = 0
matrix size = 3
fillins = 0
solver = Normal
Matrix Compiler1: 50 bytes object code size  0.1/0.1/[0.1]
Matrix Compiler2: 175 bytes object code size  0.1/0.1/[0.1]

