Circuit: * C:\Users\AT95\OneDrive\Desktop\6_OEiDT\10_labs\Lab7\7. Lab\1. zadatak.asc


Date: Tue Jan 17 13:13:23 2023
Total elapsed time: 0.272 seconds.

tnom = 27
temp = 27
method = trap
totiter = 1037
traniter = 0
tranpoints = 0
accept = 0
rejected = 0
matrix size = 5
fillins = 0
solver = Normal
Matrix Compiler1: 132 bytes object code size  0.3/0.2/[0.2]
Matrix Compiler2: 335 bytes object code size  0.2/0.3/[0.2]

