Circuit: * C:\Users\AT95\OneDrive\Desktop\6_OEiDT\10_labs\Lab7\7. Lab\2. zadatak.asc

Direct Newton iteration for .op point succeeded.

Date: Mon Jan 16 12:58:56 2023
Total elapsed time: 0.148 seconds.

tnom = 27
temp = 27
method = modified trap
totiter = 3246
traniter = 3234
tranpoints = 1324
accept = 1282
rejected = 42
matrix size = 5
fillins = 0
solver = Normal
Matrix Compiler1: 132 bytes object code size  0.2/0.1/[0.1]
Matrix Compiler2: off  [0.1]/0.1/0.1

