Circuit: * C:\Users\Milos\Desktop\MojFakultet\2. godina\Osnovi elektronike i digitalne tehnike\Laboratorijske vjezbe\7. Lab\Draft1.asc

Direct Newton iteration for .op point succeeded.

Date: Mon Dec 26 17:11:24 2022
Total elapsed time: 0.124 seconds.

tnom = 27
temp = 27
method = modified trap
totiter = 3246
traniter = 3234
tranpoints = 1324
accept = 1282
rejected = 42
matrix size = 5
fillins = 0
solver = Normal
Matrix Compiler1:       8 opcodes  0.1/[0.1]/0.1
Matrix Compiler2:      28 opcodes  0.1/[0.1]/0.1

